28

  C     1.27752286    0.20252740    0.12395289 
  C     2.62519568    0.38446458   -0.19701910 
  C     3.01914630    1.56003747   -0.84924745 
  C     2.08650690    2.54490944   -1.17729314 
  C     0.73578013    2.37179893   -0.85116034 
  C     0.32842403    1.20982840   -0.19456397 
  H     3.36842216   -0.36869991    0.04806514 
  H     4.07026782    1.70136149   -1.10188760 
  H     2.40570477    3.45397432   -1.68397165 
  H    -0.00139470    3.13879196   -1.08690141 
  H    -1.31124681   -1.04378291    1.54704538 
  H     2.19528117   -2.38335458    0.36438585 
  O     0.74131751   -0.91510105    0.73103741 
  C     1.66285970   -1.93001855    1.20488645 
  H     0.97775885   -2.64803270    1.67689314 
  H     2.34810007   -1.50480283    1.94425349 
  O    -0.98226352    1.10638043    0.25238826 
  C    -1.93802740    0.60993440   -0.72697698 
  H    -1.54894337    0.70674747   -1.75370953 
  H    -2.79748377    1.29052505   -0.58039428 
  C    -2.30689156   -0.84628069   -0.40389623 
  H    -3.28044630   -1.12204954   -0.87839287 
  H    -0.48355253   -1.63209265   -0.67211051 
  C    -2.32913403   -1.11418166    1.11039201 
  H    -3.00634495   -0.43186752    1.65410527 
  H    -2.44049586   -3.07295091    0.77556112 
  O    -1.40004881   -1.75344320   -1.03777575 
  O    -2.86960304   -2.41437505    1.36872880 
